<?xml version="1.0" encoding="UTF-8"?>

<!-- generated on 09/20/21 17:01:50 by Eclipse SUMO GUI Version 1.8.0
-->

<configuration xmlns:xsi="http://www.w3.org/2001/XMLSchema-instance" xsi:noNamespaceSchemaLocation="http://sumo.dlr.de/xsd/sumoConfiguration.xsd">

    <input>
        
		<net-file value="C:\Users\user\src\sumo-1.8.0\bin\ATTACK7.net.xml"/>
		<route-files value="C:\Users\user\src\sumo-1.8.0\bin\ATTACK7.rou.xml"/>
		
		<additional-files value="C:\Users\user\src\sumo-1.8.0\bin\test.add.xml"/>
		
		
		
    </input>

</configuration>
