<?xml version="1.0" encoding="UTF-8"?>

<!-- generated on 09/26/21 12:16:58 by Eclipse SUMO netedit Version 1.8.0
<configuration xmlns:xsi="http://www.w3.org/2001/XMLSchema-instance" xsi:noNamespaceSchemaLocation="http://sumo.dlr.de/xsd/netconvertConfiguration.xsd">

    <input>
        <sumo-net-file value="C:\Users\user\src\sumo-1.8.0\bin\ATTACK7.net.xml"/>
    </input>

    <output>
        <output-file value="C:\Users\user\src\sumo-1.8.0\bin\ATTACK7.net.xml"/>
    </output>

    <processing>
        <geometry.min-radius.fix.railways value="false"/>
        <geometry.max-grade.fix value="false"/>
        <offset.disable-normalization value="true"/>
        <lefthand value="true"/>
    </processing>

    <junctions>
        <no-turnarounds value="true"/>
        <junctions.corner-detail value="5"/>
        <junctions.limit-turn-speed value="5.5"/>
        <rectangular-lane-cut value="false"/>
    </junctions>

    <pedestrian>
        <walkingareas value="false"/>
    </pedestrian>

    <netedit>
        <route-files value="C:\Users\user\src\sumo-1.8.0\bin\ATTACK7.rou.xml"/>
    </netedit>

    <report>
        <aggregate-warnings value="5"/>
    </report>

</configuration>
-->

<net version="1.6" junctionCornerDetail="5" lefthand="true" limitTurnSpeed="5.50" xmlns:xsi="http://www.w3.org/2001/XMLSchema-instance" xsi:noNamespaceSchemaLocation="http://sumo.dlr.de/xsd/net_file.xsd">

    <location netOffset="70.00,80.00" convBoundary="0.00,0.00,100.00,60.00" origBoundary="-10000000000.00,-10000000000.00,10000000000.00,10000000000.00" projParameter="!"/>

    <edge id=":C_0" function="internal">
        <lane id=":C_0_0" index="0" speed="6.51" length="9.03" shape="68.40,22.80 68.05,25.25 67.00,27.00 65.25,28.05 62.80,28.40"/>
    </edge>
    <edge id=":C_1" function="internal">
        <lane id=":C_1_0" index="0" speed="13.89" length="14.40" shape="68.40,22.80 68.40,37.20"/>
    </edge>
    <edge id=":C_2" function="internal">
        <lane id=":C_2_0" index="0" speed="8.00" length="4.12" shape="68.40,22.80 68.95,26.65 69.07,26.85"/>
    </edge>
    <edge id=":C_12" function="internal">
        <lane id=":C_12_0" index="0" speed="8.00" length="10.08" shape="69.07,26.85 70.60,29.40 73.35,31.05 77.20,31.60"/>
    </edge>
    <edge id=":C_3" function="internal">
        <lane id=":C_3_0" index="0" speed="6.51" length="9.03" shape="77.20,28.40 74.75,28.05 73.00,27.00 71.95,25.25 71.60,22.80"/>
    </edge>
    <edge id=":C_4" function="internal">
        <lane id=":C_4_0" index="0" speed="13.89" length="14.40" shape="77.20,28.40 62.80,28.40"/>
    </edge>
    <edge id=":C_5" function="internal">
        <lane id=":C_5_0" index="0" speed="8.00" length="4.12" shape="77.20,28.40 73.35,28.95 73.15,29.07"/>
    </edge>
    <edge id=":C_13" function="internal">
        <lane id=":C_13_0" index="0" speed="8.00" length="10.08" shape="73.15,29.07 70.60,30.60 68.95,33.35 68.40,37.20"/>
    </edge>
    <edge id=":C_6" function="internal">
        <lane id=":C_6_0" index="0" speed="6.51" length="9.03" shape="71.60,37.20 71.95,34.75 73.00,33.00 74.75,31.95 77.20,31.60"/>
    </edge>
    <edge id=":C_7" function="internal">
        <lane id=":C_7_0" index="0" speed="13.89" length="14.40" shape="71.60,37.20 71.60,22.80"/>
    </edge>
    <edge id=":C_8" function="internal">
        <lane id=":C_8_0" index="0" speed="8.00" length="4.12" shape="71.60,37.20 71.05,33.35 70.93,33.15"/>
    </edge>
    <edge id=":C_14" function="internal">
        <lane id=":C_14_0" index="0" speed="8.00" length="10.08" shape="70.93,33.15 69.40,30.60 66.65,28.95 62.80,28.40"/>
    </edge>
    <edge id=":C_9" function="internal">
        <lane id=":C_9_0" index="0" speed="6.51" length="9.03" shape="62.80,31.60 65.25,31.95 67.00,33.00 68.05,34.75 68.40,37.20"/>
    </edge>
    <edge id=":C_10" function="internal">
        <lane id=":C_10_0" index="0" speed="13.89" length="14.40" shape="62.80,31.60 77.20,31.60"/>
    </edge>
    <edge id=":C_11" function="internal">
        <lane id=":C_11_0" index="0" speed="8.00" length="4.12" shape="62.80,31.60 66.65,31.05 66.85,30.93"/>
    </edge>
    <edge id=":C_15" function="internal">
        <lane id=":C_15_0" index="0" speed="8.00" length="10.08" shape="66.85,30.93 69.40,29.40 71.05,26.65 71.60,22.80"/>
    </edge>
    <edge id=":E_0" function="internal">
        <lane id=":E_0_0" index="0" speed="3.65" length="4.67" shape="100.00,31.60 101.20,30.80 101.60,30.00 101.20,29.20 100.00,28.40"/>
    </edge>
    <edge id=":N_0" function="internal">
        <lane id=":N_0_0" index="0" speed="3.65" length="4.67" shape="68.40,60.00 69.20,61.20 70.00,61.60 70.80,61.20 71.60,60.00"/>
    </edge>
    <edge id=":S_0" function="internal">
        <lane id=":S_0_0" index="0" speed="3.65" length="4.67" shape="71.60,-0.00 70.80,-1.20 70.00,-1.60 69.20,-1.20 68.40,-0.00"/>
    </edge>
    <edge id=":W_0" function="internal">
        <lane id=":W_0_0" index="0" speed="3.65" length="4.67" shape="0.00,28.40 -1.20,29.20 -1.60,30.00 -1.20,30.80 0.00,31.60"/>
    </edge>

    <edge id="CE" from="C" to="E" priority="2">
        <lane id="CE_0" index="0" speed="13.89" length="22.80" shape="77.20,31.60 100.00,31.60"/>
    </edge>
    <edge id="CN" from="C" to="N" priority="2">
        <lane id="CN_0" index="0" speed="13.89" length="22.80" shape="68.40,37.20 68.40,60.00"/>
    </edge>
    <edge id="CS" from="C" to="S" priority="2">
        <lane id="CS_0" index="0" speed="13.89" length="22.80" shape="71.60,22.80 71.60,0.00"/>
    </edge>
    <edge id="CW" from="C" to="W" priority="2">
        <lane id="CW_0" index="0" speed="13.89" length="62.80" shape="62.80,28.40 0.00,28.40"/>
    </edge>
    <edge id="EC" from="E" to="C" priority="2">
        <lane id="EC_0" index="0" speed="13.89" length="22.80" shape="100.00,28.40 77.20,28.40"/>
    </edge>
    <edge id="NC" from="N" to="C" priority="2">
        <lane id="NC_0" index="0" speed="13.89" length="22.80" shape="71.60,60.00 71.60,37.20"/>
    </edge>
    <edge id="SC" from="S" to="C" priority="2">
        <lane id="SC_0" index="0" speed="13.89" length="22.80" shape="68.40,0.00 68.40,22.80"/>
    </edge>
    <edge id="WC" from="W" to="C" priority="2">
        <lane id="WC_0" index="0" speed="13.89" length="62.80" shape="0.00,31.60 62.80,31.60"/>
    </edge>

    <tlLogic id="C" type="delay_based" programID="0" offset="0">
        <phase duration="15" state="GGggrrrrGGggrrrr" minDur="5" maxDur="30"/>
        <phase duration="5"  state="yyyyrrrryyyyrrrr"/>
        <phase duration="15" state="rrrrGGggrrrrGGgg" minDur="5" maxDur="30"/>
        <phase duration="5"  state="rrrryyyyrrrryyyy"/>
    </tlLogic>

    <junction id="C" type="traffic_light" x="70.00" y="30.00" incLanes="SC_0 EC_0 NC_0 WC_0" intLanes=":C_0_0 :C_1_0 :C_12_0 :C_3_0 :C_4_0 :C_13_0 :C_6_0 :C_7_0 :C_14_0 :C_9_0 :C_10_0 :C_15_0" shape="66.80,22.80 73.20,22.80 73.64,25.02 74.20,25.80 74.98,26.36 75.98,26.69 77.20,26.80 77.20,33.20 74.98,33.64 74.20,34.20 73.64,34.98 73.31,35.98 73.20,37.20 66.80,37.20 66.36,34.98 65.80,34.20 65.02,33.64 64.02,33.31 62.80,33.20 62.80,26.80 65.02,26.36 65.80,25.80 66.36,25.02 66.69,24.02" rightOfWay="edgePriority">
        <request index="0"  response="000000010000" foes="000100010000" cont="0"/>
        <request index="1"  response="110000100000" foes="111100110000" cont="0"/>
        <request index="2"  response="110011010000" foes="110011110000" cont="1"/>
        <request index="3"  response="000010000000" foes="100010000000" cont="0"/>
        <request index="4"  response="000100000110" foes="100110000111" cont="0"/>
        <request index="5"  response="011010000110" foes="011110000110" cont="1"/>
        <request index="6"  response="010000000000" foes="010000000100" cont="0"/>
        <request index="7"  response="100000110000" foes="110000111100" cont="0"/>
        <request index="8"  response="010000110011" foes="110000110011" cont="1"/>
        <request index="9"  response="000000000010" foes="000000100010" cont="0"/>
        <request index="10" response="000110000100" foes="000111100110" cont="0"/>
        <request index="11" response="000110011010" foes="000110011110" cont="1"/>
    </junction>
    <junction id="E" type="priority" x="100.00" y="30.00" incLanes="CE_0" intLanes=":E_0_0" shape="100.00,30.00 100.00,33.20 100.00,30.00">
        <request index="0" response="0" foes="0" cont="0"/>
    </junction>
    <junction id="N" type="priority" x="70.00" y="60.00" incLanes="CN_0" intLanes=":N_0_0" shape="70.00,60.00 66.80,60.00 70.00,60.00">
        <request index="0" response="0" foes="0" cont="0"/>
    </junction>
    <junction id="S" type="priority" x="70.00" y="0.00" incLanes="CS_0" intLanes=":S_0_0" shape="70.00,-0.00 73.20,-0.00 70.00,-0.00">
        <request index="0" response="0" foes="0" cont="0"/>
    </junction>
    <junction id="W" type="priority" x="0.00" y="30.00" incLanes="CW_0" intLanes=":W_0_0" shape="0.00,30.00 0.00,26.80 0.00,30.00">
        <request index="0" response="0" foes="0" cont="0"/>
    </junction>

    <junction id=":C_12_0" type="internal" x="69.07" y="26.85" incLanes=":C_2_0 NC_0 WC_0" intLanes=":C_4_0 :C_5_0 :C_6_0 :C_7_0 :C_10_0 :C_11_0"/>
    <junction id=":C_13_0" type="internal" x="73.15" y="29.07" incLanes=":C_5_0 SC_0 WC_0" intLanes=":C_1_0 :C_2_0 :C_7_0 :C_8_0 :C_9_0 :C_10_0"/>
    <junction id=":C_14_0" type="internal" x="70.93" y="33.15" incLanes=":C_8_0 EC_0 SC_0" intLanes=":C_0_0 :C_1_0 :C_4_0 :C_5_0 :C_10_0 :C_11_0"/>
    <junction id=":C_15_0" type="internal" x="66.85" y="30.93" incLanes=":C_11_0 EC_0 NC_0" intLanes=":C_1_0 :C_2_0 :C_3_0 :C_4_0 :C_7_0 :C_8_0"/>

    <connection from="CE" to="EC" fromLane="0" toLane="0" via=":E_0_0" dir="T" state="M"/>
    <connection from="CN" to="NC" fromLane="0" toLane="0" via=":N_0_0" dir="T" state="M"/>
    <connection from="CS" to="SC" fromLane="0" toLane="0" via=":S_0_0" dir="T" state="M"/>
    <connection from="CW" to="WC" fromLane="0" toLane="0" via=":W_0_0" dir="T" state="M"/>
    <connection from="EC" to="CS" fromLane="0" toLane="0" via=":C_3_0" tl="C" linkIndex="4" dir="l" state="o"/>
    <connection from="EC" to="CW" fromLane="0" toLane="0" via=":C_4_0" tl="C" linkIndex="5" dir="s" state="o"/>
    <connection from="EC" to="CN" fromLane="0" toLane="0" via=":C_5_0" tl="C" linkIndex="6" dir="r" state="o"/>
    <connection from="NC" to="CE" fromLane="0" toLane="0" via=":C_6_0" tl="C" linkIndex="8" dir="l" state="o"/>
    <connection from="NC" to="CS" fromLane="0" toLane="0" via=":C_7_0" tl="C" linkIndex="9" dir="s" state="o"/>
    <connection from="NC" to="CW" fromLane="0" toLane="0" via=":C_8_0" tl="C" linkIndex="10" dir="r" state="o"/>
    <connection from="SC" to="CW" fromLane="0" toLane="0" via=":C_0_0" tl="C" linkIndex="0" dir="l" state="o"/>
    <connection from="SC" to="CN" fromLane="0" toLane="0" via=":C_1_0" tl="C" linkIndex="1" dir="s" state="o"/>
    <connection from="SC" to="CE" fromLane="0" toLane="0" via=":C_2_0" tl="C" linkIndex="2" dir="r" state="o"/>
    <connection from="WC" to="CN" fromLane="0" toLane="0" via=":C_9_0" tl="C" linkIndex="12" dir="l" state="o"/>
    <connection from="WC" to="CE" fromLane="0" toLane="0" via=":C_10_0" tl="C" linkIndex="13" dir="s" state="o"/>
    <connection from="WC" to="CS" fromLane="0" toLane="0" via=":C_11_0" tl="C" linkIndex="14" dir="r" state="o"/>

    <connection from=":C_0" to="CW" fromLane="0" toLane="0" dir="l" state="M"/>
    <connection from=":C_1" to="CN" fromLane="0" toLane="0" dir="s" state="M"/>
    <connection from=":C_2" to="CE" fromLane="0" toLane="0" via=":C_12_0" dir="r" state="m"/>
    <connection from=":C_12" to="CE" fromLane="0" toLane="0" dir="r" state="M"/>
    <connection from=":C_3" to="CS" fromLane="0" toLane="0" dir="l" state="M"/>
    <connection from=":C_4" to="CW" fromLane="0" toLane="0" dir="s" state="M"/>
    <connection from=":C_5" to="CN" fromLane="0" toLane="0" via=":C_13_0" dir="r" state="m"/>
    <connection from=":C_13" to="CN" fromLane="0" toLane="0" dir="r" state="M"/>
    <connection from=":C_6" to="CE" fromLane="0" toLane="0" dir="l" state="M"/>
    <connection from=":C_7" to="CS" fromLane="0" toLane="0" dir="s" state="M"/>
    <connection from=":C_8" to="CW" fromLane="0" toLane="0" via=":C_14_0" dir="r" state="m"/>
    <connection from=":C_14" to="CW" fromLane="0" toLane="0" dir="r" state="M"/>
    <connection from=":C_9" to="CN" fromLane="0" toLane="0" dir="l" state="M"/>
    <connection from=":C_10" to="CE" fromLane="0" toLane="0" dir="s" state="M"/>
    <connection from=":C_11" to="CS" fromLane="0" toLane="0" via=":C_15_0" dir="r" state="m"/>
    <connection from=":C_15" to="CS" fromLane="0" toLane="0" dir="r" state="M"/>
    <connection from=":E_0" to="EC" fromLane="0" toLane="0" dir="T" state="M"/>
    <connection from=":N_0" to="NC" fromLane="0" toLane="0" dir="T" state="M"/>
    <connection from=":S_0" to="SC" fromLane="0" toLane="0" dir="T" state="M"/>
    <connection from=":W_0" to="WC" fromLane="0" toLane="0" dir="T" state="M"/>

</net>
