<?xml version="1.0" encoding="UTF-8"?>

<!-- generated on 09/26/21 12:17:59 by Eclipse SUMO netconvert Version 1.8.0
<configuration xmlns:xsi="http://www.w3.org/2001/XMLSchema-instance" xsi:noNamespaceSchemaLocation="http://sumo.dlr.de/xsd/netconvertConfiguration.xsd">

    <input>
        <sumo-net-file value="ATTACK7.net.xml"/>
    </input>

    <output>
        <plain-output-prefix value="ATTACK7"/>
    </output>

    <processing>
        <geometry.min-radius.fix.railways value="false"/>
        <geometry.max-grade.fix value="false"/>
        <offset.disable-normalization value="true"/>
        <lefthand value="true"/>
    </processing>

    <junctions>
        <no-turnarounds value="true"/>
        <junctions.corner-detail value="5"/>
        <junctions.limit-turn-speed value="5.5"/>
        <rectangular-lane-cut value="false"/>
    </junctions>

    <pedestrian>
        <walkingareas value="false"/>
    </pedestrian>

    <report>
        <aggregate-warnings value="5"/>
    </report>

</configuration>
-->

<edges version="1.6" xmlns:xsi="http://www.w3.org/2001/XMLSchema-instance" xsi:noNamespaceSchemaLocation="http://sumo.dlr.de/xsd/edges_file.xsd">
    <edge id="CE" from="C" to="E" priority="2" numLanes="1" speed="13.89"/>
    <edge id="CN" from="C" to="N" priority="2" numLanes="1" speed="13.89"/>
    <edge id="CS" from="C" to="S" priority="2" numLanes="1" speed="13.89"/>
    <edge id="CW" from="C" to="W" priority="2" numLanes="1" speed="13.89"/>
    <edge id="EC" from="E" to="C" priority="2" numLanes="1" speed="13.89"/>
    <edge id="NC" from="N" to="C" priority="2" numLanes="1" speed="13.89"/>
    <edge id="SC" from="S" to="C" priority="2" numLanes="1" speed="13.89"/>
    <edge id="WC" from="W" to="C" priority="2" numLanes="1" speed="13.89"/>
</edges>
