<?xml version="1.0" encoding="UTF-8"?>

<!-- generated on 09/27/21 15:57:25 by Eclipse SUMO netedit Version 1.8.0
<configuration xmlns:xsi="http://www.w3.org/2001/XMLSchema-instance" xsi:noNamespaceSchemaLocation="http://sumo.dlr.de/xsd/netconvertConfiguration.xsd">

    <input>
        <sumo-net-file value="C:\Users\user\src\sumo-1.8.0\bin\ATTACK7.net.xml"/>
    </input>

    <output>
        <output-file value="C:\Users\user\src\sumo-1.8.0\bin\ATTACK7.net.xml"/>
    </output>

    <processing>
        <geometry.min-radius.fix.railways value="false"/>
        <geometry.max-grade.fix value="false"/>
        <offset.disable-normalization value="true"/>
        <lefthand value="true"/>
    </processing>

    <junctions>
        <no-turnarounds value="true"/>
        <junctions.corner-detail value="5"/>
        <junctions.limit-turn-speed value="5.5"/>
        <rectangular-lane-cut value="false"/>
    </junctions>

    <pedestrian>
        <walkingareas value="false"/>
    </pedestrian>

    <netedit>
        <route-files value="C:\Users\user\src\sumo-1.8.0\bin\ATTACK7.rou.xml"/>
    </netedit>

    <report>
        <aggregate-warnings value="5"/>
    </report>

</configuration>
-->

<routes xmlns:xsi="http://www.w3.org/2001/XMLSchema-instance" xsi:noNamespaceSchemaLocation="http://sumo.dlr.de/xsd/routes_file.xsd">
    <route edges="WC CE" color="red" id="route_0"/>
    <route edges="WC CS" color="yellow" id="route_1"/>
    <route edges="EC CW" color="yellow" id="route_2"/>
    <route edges="NC CW" color="magenta" id="route_3"/>
    <vehicle id="C1" depart="0.00" route="route_1"/>
    <vehicle id="C5" depart="0.00" color="magenta" route="route_3"/>
    <vehicle id="C4" depart="1.00" color="magenta" route="route_3"/>
    <vehicle id="C2" depart="3.00" route="route_2"/>
    <vehicle id="C3" depart="15.00" color="magenta" route="route_3"/>
    <vehicle id="C0" depart="17.00" color="red" route="route_0"/>
</routes>
